# =========================
# pkg AUTODIFF parameters :
# =========================
#  inAdExact :: get an exact adjoint (no approximation) (def=.True.)
#
 &AUTODIFF_PARM01
# inAdExact = .FALSE.,
 SIregFacInAd = 0.0,
 SIregFacInFw = 0.0,

 useSEAICEinAdMode = .FALSE.,
 SEAICEuseDYNAMICSswitchInAd = .FALSE.,
 useKPPinAdMode = .FALSE.,
 useGMRediInAdMode = .FALSE.,
 useGGL90inAdMode = .FALSE.,
 useSALT_PLUMEinAdMode = .FALSE.,
 &
